Version 4
SHEET 1 1452 680
WIRE 272 -720 -256 -720
WIRE 880 -720 272 -720
WIRE 272 -672 272 -720
WIRE -256 -544 -256 -720
WIRE 272 -544 272 -592
WIRE 416 -544 272 -544
WIRE 272 -496 272 -544
WIRE 272 -480 272 -496
WIRE 272 -384 272 -416
WIRE 384 -384 272 -384
WIRE 544 -384 384 -384
WIRE 384 -352 384 -384
WIRE 544 -352 544 -384
WIRE 880 -336 880 -720
WIRE 272 -272 272 -384
WIRE 384 -272 384 -288
WIRE 544 -272 544 -288
WIRE 384 -176 384 -192
WIRE 464 -176 384 -176
WIRE 544 -176 544 -192
WIRE 544 -176 464 -176
WIRE 464 -160 464 -176
WIRE -256 -64 -256 -464
WIRE -128 -64 -256 -64
WIRE -96 -64 -128 -64
WIRE 0 -64 -32 -64
WIRE 112 -64 80 -64
WIRE 272 -64 272 -192
WIRE 272 -64 192 -64
WIRE 464 -64 464 -80
WIRE 464 -64 272 -64
WIRE 272 0 272 -64
WIRE 272 112 272 0
WIRE 880 112 880 -256
WIRE 880 112 272 112
WIRE 272 144 272 112
FLAG -128 -64 b
FLAG 272 0 e
FLAG 272 144 0
FLAG 272 -496 c
DATAFLAG 352 -544 ""
DATAFLAG -224 -64 ""
SYMBOL diode -96 -48 R270
WINDOW 0 32 32 VTop 2
WINDOW 3 0 32 VBottom 2
SYMATTR InstName D1
SYMATTR Value Dmodel
SYMBOL res 96 -80 R90
WINDOW 0 0 56 VBottom 2
WINDOW 3 32 56 VTop 2
SYMATTR InstName R1
SYMATTR Value {Rbe}
SYMBOL voltage 96 -64 R270
WINDOW 0 32 56 VTop 2
WINDOW 3 -32 56 VBottom 2
SYMATTR InstName V1
SYMATTR Value {Vth}
SYMBOL Misc\\Gpoly 272 -176 R180
WINDOW 0 24 104 Left 2
WINDOW 3 43 58 Left 2
SYMATTR InstName G1
SYMATTR Value value={Beta*i(D1)}
SYMBOL diode 560 -288 R180
WINDOW 0 -53 60 Left 2
WINDOW 3 -104 29 Left 2
SYMATTR InstName D2
SYMATTR Value Dmodel
SYMBOL res 368 -288 R0
SYMATTR InstName R4
SYMATTR Value {Rce}
SYMBOL diode 368 -352 R0
WINDOW 3 42 30 Left 2
SYMATTR Value Dmodel
SYMATTR InstName D3
SYMBOL diode 256 -480 R0
WINDOW 0 73 14 Left 2
WINDOW 3 53 41 Left 2
SYMATTR InstName D4
SYMATTR Value Dmodel
SYMBOL Misc\\Epoly 464 -176 R0
SYMATTR InstName E1
SYMATTR Value value = {Vsat + i(G1)*Rsat}
SYMBOL res 528 -288 R0
SYMATTR InstName R5
SYMATTR Value {Rsat}
SYMBOL res 256 -688 R0
SYMATTR InstName R2
SYMATTR Value 500
SYMBOL res -272 -560 R0
SYMATTR InstName R3
SYMATTR Value 93k
SYMBOL voltage 880 -352 R0
SYMATTR InstName V2
SYMATTR Value 10
TEXT -40 192 Left 2 !.model Dmodel D(Ron=1m Roff=100Meg Vfwd=1m Vrev=1k)
TEXT -240 -816 Left 2 !.param Rbe=1k Vth=0.6\n.param Beta=100\n.param Vsat=0 Rsat=1m Rce=1meg
TEXT 296 -792 Left 2 !.op
