Version 4
SHEET 1 1452 680
WIRE 272 -496 160 -496
WIRE 272 -480 272 -496
WIRE 272 -384 272 -416
WIRE 384 -384 272 -384
WIRE 544 -384 384 -384
WIRE 384 -352 384 -384
WIRE 544 -352 544 -384
WIRE 272 -272 272 -384
WIRE 384 -272 384 -288
WIRE 544 -272 544 -288
WIRE 384 -176 384 -192
WIRE 464 -176 384 -176
WIRE 544 -176 544 -192
WIRE 544 -176 464 -176
WIRE 464 -160 464 -176
WIRE -96 -64 -192 -64
WIRE 0 -64 -32 -64
WIRE 112 -64 80 -64
WIRE 272 -64 272 -192
WIRE 272 -64 192 -64
WIRE 464 -64 464 -80
WIRE 464 -64 272 -64
WIRE 272 48 272 -64
WIRE 272 48 192 48
FLAG -192 -64 B
IOPIN -192 -64 In
FLAG 160 -496 C
IOPIN 160 -496 In
FLAG 192 48 E
IOPIN 192 48 In
SYMBOL diode -96 -48 R270
WINDOW 0 32 32 VTop 2
WINDOW 3 0 32 VBottom 2
SYMATTR InstName D1
SYMATTR Value Dmodel
SYMBOL res 96 -80 R90
WINDOW 0 0 56 VBottom 2
WINDOW 3 32 56 VTop 2
SYMATTR InstName R1
SYMATTR Value {Rbe}
SYMBOL voltage 96 -64 R270
WINDOW 0 32 56 VTop 2
WINDOW 3 -32 56 VBottom 2
SYMATTR InstName V1
SYMATTR Value {Vth}
SYMBOL Misc\\Gpoly 272 -176 R180
WINDOW 0 24 104 Left 2
WINDOW 3 43 58 Left 2
SYMATTR InstName G1
SYMATTR Value value={Beta*i(D1)}
SYMBOL diode 560 -288 R180
WINDOW 0 -53 60 Left 2
WINDOW 3 -104 29 Left 2
SYMATTR InstName D2
SYMATTR Value Dmodel
SYMBOL res 368 -288 R0
SYMATTR InstName R4
SYMATTR Value {Rce}
SYMBOL diode 368 -352 R0
WINDOW 3 42 30 Left 2
SYMATTR Value Dmodel
SYMATTR InstName D3
SYMBOL diode 256 -480 R0
WINDOW 0 73 14 Left 2
WINDOW 3 53 41 Left 2
SYMATTR InstName D4
SYMATTR Value Dmodel
SYMBOL Misc\\Epoly 464 -176 R0
SYMATTR InstName E1
SYMATTR Value value = {Vsat + i(G1)*Rsat}
SYMBOL res 528 -288 R0
SYMATTR InstName R5
SYMATTR Value {Rsat}
TEXT -40 104 Left 2 !.model Dmodel D(Ron=1m Roff=100Meg Vfwd=1m Vrev=1k)
