Version 4
SHEET 1 1452 680
WIRE 272 -608 112 -608
WIRE 272 -528 272 -608
WIRE 272 -432 272 -464
WIRE 512 -432 272 -432
WIRE 512 -400 512 -432
WIRE 512 -304 512 -320
WIRE 512 -304 432 -304
WIRE 592 -304 512 -304
WIRE 272 -272 272 -432
WIRE 432 -272 432 -304
WIRE 592 -272 592 -304
WIRE 432 -192 432 -208
WIRE 592 -192 592 -208
WIRE 432 -96 432 -112
WIRE 512 -96 432 -96
WIRE 592 -96 592 -112
WIRE 592 -96 512 -96
WIRE -112 -64 -192 -64
WIRE 0 -64 -32 -64
WIRE 128 -64 80 -64
WIRE 272 -64 272 -192
WIRE 272 -64 192 -64
WIRE 512 -64 512 -96
WIRE 512 -64 272 -64
WIRE 272 80 272 -64
WIRE 272 80 192 80
FLAG -192 -64 B
IOPIN -192 -64 In
FLAG 112 -608 C
IOPIN 112 -608 In
FLAG 192 80 E
IOPIN 192 80 In
SYMBOL diode 192 -80 R90
WINDOW 0 0 32 VBottom 2
WINDOW 3 32 32 VTop 2
SYMATTR InstName D1
SYMATTR Value Dmodel
SYMBOL res 96 -80 R90
WINDOW 0 0 56 VBottom 2
WINDOW 3 32 56 VTop 2
SYMATTR InstName R1
SYMATTR Value {Rbe}
SYMBOL voltage -16 -64 R90
WINDOW 0 -32 56 VBottom 2
WINDOW 3 32 56 VTop 2
SYMATTR InstName V1
SYMATTR Value {Vth}
SYMBOL Misc\\Gpoly 272 -288 R0
WINDOW 0 -138 25 Left 2
WINDOW 3 -276 66 Left 2
SYMATTR InstName G1
SYMATTR Value value={Beta*i(D1)}
SYMBOL diode 576 -272 R0
SYMATTR InstName D2
SYMATTR Value Dmodel
SYMBOL res 416 -208 R0
SYMATTR InstName R4
SYMATTR Value {Rce}
SYMBOL diode 448 -208 R180
WINDOW 3 24 0 Left 2
WINDOW 0 24 64 Left 2
SYMATTR Value Dmodel
SYMATTR InstName D3
SYMBOL diode 288 -464 R180
WINDOW 0 24 64 Left 2
WINDOW 3 24 0 Left 2
SYMATTR InstName D4
SYMATTR Value Dmodel
SYMBOL Misc\\Epoly 512 -304 R180
WINDOW 0 24 104 Left 2
WINDOW 3 -377 57 Left 2
SYMATTR InstName E1
SYMATTR Value value = {Vsat + i(G1)*Rsat}
SYMBOL res 576 -208 R0
SYMATTR InstName R5
SYMATTR Value {Rsat}
TEXT -104 152 Left 2 !.model Dmodel D(Ron=1m Roff=100Meg Vfwd=1m Vrev=1k)
