Version 4
SHEET 1 1452 680
WIRE 288 -496 272 -496
WIRE 480 -496 288 -496
WIRE 656 -496 560 -496
WIRE 656 -336 656 -496
WIRE 272 -304 272 -496
WIRE -64 -256 -128 -256
WIRE 144 -256 16 -256
WIRE 208 -256 144 -256
WIRE -128 -224 -128 -256
WIRE -128 -96 -128 -144
WIRE 272 -48 272 -208
WIRE 656 -48 656 -256
WIRE 656 -48 272 -48
WIRE 272 -16 272 -48
FLAG 144 -256 b
FLAG 272 -16 0
FLAG -128 -96 0
FLAG 288 -496 c
SYMBOL voltage -128 -240 R0
WINDOW 0 65 52 Left 2
WINDOW 3 42 78 Left 2
WINDOW 123 0 0 Left 0
WINDOW 39 0 0 Left 0
SYMATTR InstName V2
SYMATTR Value {Vdc}
SYMBOL res 576 -512 R90
WINDOW 0 0 56 VBottom 2
WINDOW 3 32 56 VTop 2
SYMATTR InstName R2
SYMATTR Value 1k
SYMBOL voltage 656 -352 R0
WINDOW 123 0 0 Left 0
WINDOW 39 0 0 Left 0
SYMATTR InstName V3
SYMATTR Value SINE(3 4 1k)
SYMBOL res 32 -272 R90
WINDOW 0 0 56 VBottom 2
WINDOW 3 32 56 VTop 2
SYMATTR InstName R3
SYMATTR Value 100k
SYMBOL Control\\pwnpn 208 -304 R0
WINDOW 123 107 29 Left 2
WINDOW 39 107 58 Left 2
WINDOW 3 114 90 Left 2
SYMATTR Value2 Beta=100 Rce=10k
SYMATTR SpiceLine Vsat=0.5 Rsat=10
SYMATTR InstName U1
TEXT -136 -424 Left 2 !.tran 0 10m 8m 1u
TEXT -136 -384 Left 2 !.step param Vdc list 0.1 2 3 4  5
