Version 4
SHEET 1 1452 680
WIRE 432 -384 272 -384
WIRE 640 -384 512 -384
WIRE 272 -320 272 -384
WIRE 640 -240 640 -384
WIRE 272 -224 272 -320
WIRE -32 -176 -128 -176
WIRE 160 -176 48 -176
WIRE 208 -176 160 -176
WIRE -128 -144 -128 -176
WIRE -128 -16 -128 -64
WIRE 272 112 272 -128
WIRE 640 112 640 -160
WIRE 640 112 272 112
WIRE 272 144 272 112
FLAG 160 -176 b
FLAG 272 144 0
FLAG -128 -16 0
FLAG 272 -320 c
SYMBOL voltage -128 -48 R180
WINDOW 0 45 53 Left 2
WINDOW 3 -111 57 Left 2
WINDOW 123 0 0 Left 0
WINDOW 39 0 0 Left 0
SYMATTR InstName V2
SYMATTR Value {Vdc}
SYMBOL res 416 -368 R270
WINDOW 0 32 56 VTop 2
WINDOW 3 0 56 VBottom 2
SYMATTR InstName R2
SYMATTR Value 1k
SYMBOL voltage 640 -144 R180
WINDOW 123 0 0 Left 0
WINDOW 39 0 0 Left 0
WINDOW 0 47 56 Left 2
WINDOW 3 -183 57 Left 2
SYMATTR InstName V3
SYMATTR Value SINE(3 4 1k)
SYMBOL res 64 -192 R90
WINDOW 0 0 56 VBottom 2
WINDOW 3 32 56 VTop 2
SYMATTR InstName R3
SYMATTR Value 100k
SYMBOL Control\\pwpnp 208 -224 R0
WINDOW 123 84 60 Left 2
WINDOW 39 84 88 Left 2
WINDOW 3 84 116 Left 2
SYMATTR Value2 Beta=100 Rce=10k
SYMATTR SpiceLine Vsat=0.5 Rsat=100
SYMATTR InstName U1
TEXT -152 -376 Left 2 !.tran 0 10m 8m 1u
TEXT -152 -328 Left 2 !.step param Vdc list 0.1 2 3 4  5
