Version 4
SHEET 1 1452 680
WIRE 480 -592 272 -592
WIRE 960 -592 560 -592
WIRE 272 -560 272 -592
WIRE 272 -528 272 -560
WIRE 272 -432 272 -464
WIRE 512 -432 272 -432
WIRE 512 -400 512 -432
WIRE 960 -336 960 -592
WIRE 512 -304 512 -320
WIRE 512 -304 432 -304
WIRE 592 -304 512 -304
WIRE 272 -272 272 -432
WIRE 432 -272 432 -304
WIRE 592 -272 592 -304
WIRE 432 -192 432 -208
WIRE 592 -192 592 -208
WIRE 432 -96 432 -112
WIRE 512 -96 432 -96
WIRE 592 -96 592 -112
WIRE 592 -96 512 -96
WIRE -368 -64 -432 -64
WIRE -160 -64 -288 -64
WIRE -112 -64 -160 -64
WIRE 0 -64 -32 -64
WIRE 128 -64 80 -64
WIRE 272 -64 272 -192
WIRE 272 -64 192 -64
WIRE 512 -64 512 -96
WIRE 512 -64 272 -64
WIRE -432 -32 -432 -64
WIRE 272 0 272 -64
WIRE -432 96 -432 48
WIRE 272 112 272 0
WIRE 960 112 960 -256
WIRE 960 112 272 112
WIRE 272 144 272 112
FLAG -160 -64 b
FLAG 272 0 e
FLAG 272 144 0
FLAG -432 96 0
FLAG 272 -560 c
SYMBOL diode 192 -80 R90
WINDOW 0 0 32 VBottom 2
WINDOW 3 32 32 VTop 2
SYMATTR InstName D1
SYMATTR Value Dmodel
SYMBOL res 96 -80 R90
WINDOW 0 0 56 VBottom 2
WINDOW 3 32 56 VTop 2
SYMATTR InstName R1
SYMATTR Value {Rbe}
SYMBOL voltage -16 -64 R90
WINDOW 0 -32 56 VBottom 2
WINDOW 3 32 56 VTop 2
SYMATTR InstName V1
SYMATTR Value {Vth}
SYMBOL Misc\\Gpoly 272 -288 R0
WINDOW 0 -138 25 Left 2
WINDOW 3 -276 66 Left 2
SYMATTR InstName G1
SYMATTR Value value={Beta*i(D1)}
SYMBOL diode 576 -272 R0
SYMATTR InstName D2
SYMATTR Value Dmodel
SYMBOL voltage -432 64 R180
WINDOW 0 45 53 Left 2
WINDOW 3 -111 57 Left 2
WINDOW 123 0 0 Left 0
WINDOW 39 0 0 Left 0
SYMATTR InstName V2
SYMATTR Value {Vdc}
SYMBOL res 464 -576 R270
WINDOW 0 32 56 VTop 2
WINDOW 3 0 56 VBottom 2
SYMATTR InstName R2
SYMATTR Value 1k
SYMBOL voltage 960 -240 R180
WINDOW 123 0 0 Left 0
WINDOW 39 0 0 Left 0
WINDOW 0 47 56 Left 2
WINDOW 3 -183 57 Left 2
SYMATTR InstName V3
SYMATTR Value SINE(3 4 1k)
SYMBOL res -272 -80 R90
WINDOW 0 0 56 VBottom 2
WINDOW 3 32 56 VTop 2
SYMATTR InstName R3
SYMATTR Value 100k
SYMBOL res 416 -208 R0
SYMATTR InstName R4
SYMATTR Value {Rce}
SYMBOL diode 448 -208 R180
WINDOW 3 24 0 Left 2
WINDOW 0 24 64 Left 2
SYMATTR Value Dmodel
SYMATTR InstName D3
SYMBOL diode 288 -464 R180
WINDOW 0 24 64 Left 2
WINDOW 3 24 0 Left 2
SYMATTR InstName D4
SYMATTR Value Dmodel
SYMBOL Misc\\Epoly 512 -304 R180
WINDOW 0 24 104 Left 2
WINDOW 3 -377 57 Left 2
SYMATTR InstName E1
SYMATTR Value value = {Vsat + i(G1)*Rsat}
SYMBOL res 576 -208 R0
SYMATTR InstName R5
SYMATTR Value {Rsat}
TEXT -40 192 Left 2 !.model Dmodel D(Ron=1m Roff=100Meg Vfwd=1m Vrev=1k)
TEXT -384 -472 Left 2 !.param Rbe=1 Vth=0.7\n.param Beta=100\n.param Vsat=0.5 Rsat=100 Rce=10k
TEXT -376 -528 Left 2 !.tran 0 10m 8m 1u
TEXT -376 -320 Left 2 !.step param Vdc list 0.1 2 3 4  5
